/*--------------------------------*- C++ -*----------------------------------*\
| =========                 |                                                 |
| \\      /  F ield         | OpenFOAM Extend Project: Open Source CFD        |
|  \\    /   O peration     | Version:  1.6-ext                               |
|   \\  /    A nd           | Web:      www.extend-project.de                 |
|    \\/     M anipulation  |                                                 |
\*---------------------------------------------------------------------------*/
FoamFile
{
    version     2.0;
    format      ascii;
    class       dictionary;
    object      RASProperties; 
}
// * * * * * * * * * * * * * * * * * * * * * * * * * * * * * * * * * * * * * //

RASModel            turbulentPotentialN;

turbulence          on;

printCoeffs         on;

turbulentPotentialNCoeffs{

	solveK              true;
	solveEps            true;
	solvePsi            true;
	solvePhi            true;
	solveNut            true;

	sigmaK              1.0; 
	sigmaEps            0.8; 
	sigmaPhi            0.5;
	sigmaPsi            1.0; 
	
	prodType			1.1;
	cPrK				0.2;
	cPrP				1.0; 
	pMix				0.5;
        gType                           7.0;
        cG				0.72;
	cGw				1.0;
        cGp                             1.0;

	eqncEp1             true;
	eqncEp2             false;
        cEp1Type			2.0;
	cEp1				1.45;                           
        cEp2con				1.83;
        cEp4				0.02;
	eqnEpsHat           mod;
	cEhmM				10.0;	
	
	transType           6.0;
	cT                  0.0;
	cA                  0.0;  
	
	dampType			15.0;
	cNF					0.5;
	cN1					0.6;
	cN2					2.2;
	cND1                0.8;
	cND2                0.8;
	nutRatMax			1e5;
	eqncMu				false;
	cMu					0.21;
	betaK				0.09;
        nutReal				false;
	nutType                         5.0;
	
	cL1					0.36;
	cL2					85; 
	tslimiter			false;
	lslimiter			false;

	cD1					0.0; 
	cD2					1.0;
	cD3					1.0;
	cD4					1.0;
 
	cP1					1.7; 
    cP1beta            	0.0;
	cP1chi				0.9;
    cP1pow				1.0;
	cP1type				1.0;
    cP2					0.6;  
	cP3				 	0.08;
	cP4					0.006;
    cP5                 0.04;

	debugWrite          true;
}


boundaryCoeffs{
	tslimiter			false;
	nutRatMax			1e5;
	cMu					0.21;
	betaK				0.09;
}

// ************************************************************************* //


